# generated using pymatgen
data_BaTiO3
_symmetry_space_group_name_H-M   Amm2
_cell_length_a   3.98333387
_cell_length_b   5.72519022
_cell_length_c   5.75067906
_cell_angle_alpha   90.00000000
_cell_angle_beta   90.00000000
_cell_angle_gamma   90.00000000
_symmetry_Int_Tables_number   38
_chemical_formula_structural   BaTiO3
_chemical_formula_sum   'Ba2 Ti2 O6'
_cell_volume   131.14621483
_cell_formula_units_Z   2
loop_
 _symmetry_equiv_pos_site_id
 _symmetry_equiv_pos_as_xyz
  1  'x, y, z'
  2  'x, y, z'
  3  '-x, -y, z'
  4  '-x, -y, z'
  5  '-x, y, z'
  6  '-x, y, z'
  7  'x, -y, z'
  8  'x, -y, z'
  9  'x, y+1/2, z+1/2'
  10  'x, y+1/2, z+1/2'
  11  '-x, -y+1/2, z+1/2'
  12  '-x, -y+1/2, z+1/2'
  13  '-x, y+1/2, z+1/2'
  14  '-x, y+1/2, z+1/2'
  15  'x, -y+1/2, z+1/2'
  16  'x, -y+1/2, z+1/2'
loop_
 _atom_site_type_symbol
 _atom_site_label
 _atom_site_symmetry_multiplicity
 _atom_site_fract_x
 _atom_site_fract_y
 _atom_site_fract_z
 _atom_site_occupancy
  Ba  Ba0  2  0.00000000  0.00000000  0.99658615  1
  Ti  Ti1  2  0.50000000  0.00000000  0.48149618  1
  O  O2  4  0.50000000  0.24353689  0.26511122  1
  O  O3  2  0.00000000  0.00000000  0.51179524  1
